#======================================================================

# CRYSTAL DATA

#----------------------------------------------------------------------

data_VESTA_phase_1


_pd_phase_name                         'findsym-output'
_cell_length_a                         4.71312
_cell_length_b                         6.82757
_cell_length_c                         8.87547
_cell_angle_alpha                      69.37523
_cell_angle_beta                       76.98417
_cell_angle_gamma                      83.62982
_symmetry_space_group_name_H-M         'P 1'
_symmetry_Int_Tables_number            1

loop_
_symmetry_equiv_pos_as_xyz
   'x, y, z'

loop_
   _atom_site_label
   _atom_site_occupancy
   _atom_site_fract_x
   _atom_site_fract_y
   _atom_site_fract_z
   _atom_site_adp_type
   _atom_site_B_iso_or_equiv
   _atom_site_type_symbol
   A1         1.0    -0.353490      0.097450      0.172100     Biso  1.000000 Sn
   B1         1.0     0.090650     -0.054210      0.454690     Biso  1.000000 I
   B2         1.0     0.272570      0.210770     -0.097940     Biso  1.000000 I
   B3         1.0    -0.452550     -0.477900      0.192940     Biso  1.000000 I
   C1         1.0    -0.151820      0.422660     -0.453710     Biso  1.000000 N
   D1         1.0    -0.310920      0.377390     -0.344070     Biso  1.000000 H
   D2         1.0    -0.001950      0.297320     -0.454520     Biso  1.000000 H
   D3         1.0    -0.251530      0.455870      0.443010     Biso  1.000000 H
   D4         1.0    -0.047570     -0.442360     -0.465120     Biso  1.000000 H

# Number_of_atoms:                     9
# Number_of_atom_types:                4
# Atom_types:                          Sn I N H
# Atom_numbers:                        1 3 1 4
# Material_class:                      MC_ino
# Geometry_class:                      GC_cry
# Source:                              Huan_etal:PhysRevB(2016)
# Tool:                                VASP
# Pseudopotential:                     PAW, PBE
# Simulation_conditions:               ENCUT=500eV
# Band_gap_at_the_GGA_level_(eV):      1.9
# Band_gap_at_the_HSE06_level_(eV):    3.05
# File_description:                    Structure in CIF Format 
# Note:                                N/A
# Created_by:			       Huan Tran (huan.tran@uconn.edu)