#======================================================================

# CRYSTAL DATA

#----------------------------------------------------------------------

data_VESTA_phase_1


_pd_phase_name                         'findsym-output                        '
_cell_length_a                         8.37568
_cell_length_b                         4.63343
_cell_length_c                         6.53304
_cell_angle_alpha                      86.53532
_cell_angle_beta                       101.73903
_cell_angle_gamma                      98.60477
_symmetry_space_group_name_H-M         'P 1'
_symmetry_Int_Tables_number            1

loop_
_symmetry_equiv_pos_as_xyz
   'x, y, z'

loop_
   _atom_site_label
   _atom_site_occupancy
   _atom_site_fract_x
   _atom_site_fract_y
   _atom_site_fract_z
   _atom_site_adp_type
   _atom_site_B_iso_or_equiv
   _atom_site_type_symbol
   C1         1.0     0.579876      0.107820      0.487076     Biso  1.000000 C
   H1         1.0     0.401431      0.740546      0.428187     Biso  1.000000 H
   H2         1.0     0.353495      0.969823      0.583011     Biso  1.000000 H
   H3         1.0     0.679596      0.003073      0.451487     Biso  1.000000 H
   H4         1.0     0.523017      0.224737      0.346586     Biso  1.000000 H
   H5         1.0     0.628977      0.256715      0.616468     Biso  1.000000 H
   H6         1.0     0.503135      0.762952      0.684050     Biso  1.000000 H
   I1         1.0     0.080975      0.205204      0.480210     Biso  1.000000 I
   I2         1.0     0.280015      0.753407      0.027039     Biso  1.000000 I
   I3         1.0     0.739940      0.613877      0.000297     Biso  1.000000 I
   N1         1.0     0.452939      0.879984      0.551295     Biso  1.000000 N
   Sn1        1.0     0.012924      0.188344      0.016954     Biso  1.000000 Sn

# Number_of_atoms:                     12
# Number_of_atom_types:                5
# Atom_types:                          C H I N Sn
# Atom_numbers:                        1  6  3  1  1
# Material_class:                      MC_ino
# Geometry_class:                      GC_cry
# Source:                              Huan_etal:PhysRevB(2016)
# Tool:                                VASP
# Pseudopotential:                     PAW, PBE
# Simulation_conditions:               ENCUT=500eV
# Band_gap_at_the_GGA_level_(eV):      1.3
# Band_gap_at_the_HSE06_level_(eV):    3.0
# File_description:                    Structure in CIF Format 
# Note:                                N/A
# Created_by:			       Huan Tran (huan.tran@uconn.edu)