#======================================================================

# CRYSTAL DATA

#----------------------------------------------------------------------

data_VESTA_phase_1


_pd_phase_name                         '5 6 1 53 7 50                         '
_cell_length_a                         6.27177
_cell_length_b                         6.20129
_cell_length_c                         6.40756
_cell_angle_alpha                      89.99935
_cell_angle_beta                       83.53374
_cell_angle_gamma                      89.99744
_symmetry_space_group_name_H-M         'P 1'
_symmetry_Int_Tables_number            1

loop_
_symmetry_equiv_pos_as_xyz
   'x, y, z'

loop_
   _atom_site_label
   _atom_site_occupancy
   _atom_site_fract_x
   _atom_site_fract_y
   _atom_site_fract_z
   _atom_site_adp_type
   _atom_site_B_iso_or_equiv
   _atom_site_type_symbol
   C1         1.0     0.374656      0.498997      0.449399     Biso  1.000000 C
   H1         1.0     0.595312      0.363309      0.636527     Biso  1.000000 H
   H2         1.0     0.595316      0.634546      0.636589     Biso  1.000000 H
   H3         1.0     0.274267      0.354108      0.454906     Biso  1.000000 H
   H4         1.0     0.274313      0.643947      0.454939     Biso  1.000000 H
   H5         1.0     0.488794      0.498994      0.306828     Biso  1.000000 H
   H6         1.0     0.393789      0.498915      0.773849     Biso  1.000000 H
   I1         1.0     0.848602      0.998947      0.507793     Biso  1.000000 I
   I2         1.0     0.954277      0.498950      0.976411     Biso  1.000000 I
   I3         1.0     0.404188      0.998925      0.007408     Biso  1.000000 I
   N1         1.0     0.497656      0.498939      0.635642     Biso  1.000000 N
   Sn1        1.0     0.921924      0.998984      0.035568     Biso  1.000000 Sn

# Number_of_atoms:                     12
# Number_of_atom_types:                5
# Atom_types:                          C H I N Sn
# Atom_numbers:                        1  6  3  1  1
# Material_class:                      MC_ino
# Geometry_class:                      GC_cry
# Source:                              Huan_etal:PhysRevB(2016)
# Tool:                                VASP
# Pseudopotential:                     PAW, PBE
# Simulation_conditions:               ENCUT=500eV
# Band_gap_at_the_GGA_level_(eV):      0.2
# Band_gap_at_the_HSE06_level_(eV):    1.22
# File_description:                    Structure in CIF Format 
# Note:                                N/A
# Created_by:			       Huan Tran (huan.tran@uconn.edu)