#======================================================================

# CRYSTAL DATA

#----------------------------------------------------------------------

data_VESTA_phase_1


_pd_phase_name                         'findsym-output                        '
_cell_length_a                         6.42965
_cell_length_b                         4.42222
_cell_length_c                         8.65071
_cell_angle_alpha                      90.10890
_cell_angle_beta                       84.76865
_cell_angle_gamma                      84.76683
_symmetry_space_group_name_H-M         'P 1'
_symmetry_Int_Tables_number            1

loop_
_symmetry_equiv_pos_as_xyz
   'x, y, z'

loop_
   _atom_site_label
   _atom_site_occupancy
   _atom_site_fract_x
   _atom_site_fract_y
   _atom_site_fract_z
   _atom_site_adp_type
   _atom_site_B_iso_or_equiv
   _atom_site_type_symbol
   C1         1.0     0.471298      0.551720      0.556470     Biso  1.000000 C
   H1         1.0     0.379809      0.471071      0.658605     Biso  1.000000 H
   H2         1.0     0.658988      0.749086      0.693096     Biso  1.000000 H
   H3         1.0     0.725047      0.794620      0.493170     Biso  1.000000 H
   H4         1.0     0.287139      0.359827      0.412317     Biso  1.000000 H
   H5         1.0     0.489424      0.544354      0.316303     Biso  1.000000 H
   I1         1.0     0.544877      0.677930      0.013962     Biso  1.000000 I
   I2         1.0     0.970916      0.102122      0.293584     Biso  1.000000 I
   I3         1.0     0.042920      0.091212      0.761076     Biso  1.000000 I
   N1         1.0     0.415674      0.478903      0.419859     Biso  1.000000 N
   N2         1.0     0.628516      0.710444      0.580905     Biso  1.000000 N
   Sn1        1.0     0.009321      0.597302      0.022622     Biso  1.000000 Sn

# Number_of_atoms:                     12
# Number_of_atom_types:                5
# Atom_types:                          C H I N Sn
# Atom_numbers:                        1 5 3 2 1
# Material_class:                      MC_ino
# Geometry_class:                      GC_cry
# Source:                              Huan_etal:PhysRevB(2016)
# Tool:                                VASP
# Pseudopotential:                     PAW, PBE
# Simulation_conditions:               ENCUT=500eV
# Band_gap_at_the_GGA_level_(eV):      2.0
# Band_gap_at_the_HSE06_level_(eV):    2.75
# File_description:                    Structure in CIF Format 
# Note:                                N/A
# Created_by:			       Huan Tran (huan.tran@uconn.edu)