#======================================================================

# CRYSTAL DATA

#----------------------------------------------------------------------

data_VESTA_phase_1


_pd_phase_name                         'findsym-output                        '
_cell_length_a                         6.32313
_cell_length_b                         6.34669
_cell_length_c                         6.35001
_cell_angle_alpha                      94.71267
_cell_angle_beta                       96.13157
_cell_angle_gamma                      85.43732
_symmetry_space_group_name_H-M         'P 1'
_symmetry_Int_Tables_number            1

loop_
_symmetry_equiv_pos_as_xyz
   'x, y, z'

loop_
   _atom_site_label
   _atom_site_occupancy
   _atom_site_fract_x
   _atom_site_fract_y
   _atom_site_fract_z
   _atom_site_adp_type
   _atom_site_B_iso_or_equiv
   _atom_site_type_symbol
   C1         1.0     0.994632      0.908153      0.913763     Biso  1.000000 C
   H1         1.0     0.123631      0.789211      0.642413     Biso  1.000000 H
   H2         1.0     0.759209      0.781185      0.044800     Biso  1.000000 H
   H3         1.0     0.227343      0.021837      0.768140     Biso  1.000000 H
   H4         1.0     0.001567      0.038788      0.037453     Biso  1.000000 H
   H5         1.0     0.843409      0.637769      0.816625     Biso  1.000000 H
   I1         1.0     0.489737      0.871031      0.343306     Biso  1.000000 I
   I2         1.0     0.492998      0.334397      0.870871     Biso  1.000000 I
   I3         1.0     0.986045      0.390812      0.413183     Biso  1.000000 I
   N1         1.0     0.858683      0.764594      0.926026     Biso  1.000000 N
   N2         1.0     0.122720      0.905758      0.763786     Biso  1.000000 N
   Sn1        1.0     0.509934      0.393454      0.343494     Biso  1.000000 Sn

# Number_of_atoms:                     12
# Number_of_atom_types:                5
# Atom_types:                          C H I N Sn
# Atom_numbers:                        1 5 3 2 1
# Material_class:                      MC_ino
# Geometry_class:                      GC_cry
# Source:                              Huan_etal:PhysRevB(2016)
# Tool:                                VASP
# Pseudopotential:                     PAW, PBE
# Simulation_conditions:               ENCUT=500eV
# Band_gap_at_the_GGA_level_(eV):      0.2
# Band_gap_at_the_HSE06_level_(eV):    1.2
# File_description:                    Structure in CIF Format 
# Note:                                N/A
# Created_by:			       Huan Tran (huan.tran@uconn.edu)