#======================================================================

# CRYSTAL DATA

#----------------------------------------------------------------------

data_VESTA_phase_1


_pd_phase_name                         'findsym-output'
_cell_length_a                         6.39813
_cell_length_b                         6.38115
_cell_length_c                         6.40291
_cell_angle_alpha                      98.04158
_cell_angle_beta                       98.10249
_cell_angle_gamma                      81.96894
_symmetry_space_group_name_H-M         'P 1'
_symmetry_Int_Tables_number            1

loop_
_symmetry_equiv_pos_as_xyz
   'x, y, z'

loop_
   _atom_site_label
   _atom_site_occupancy
   _atom_site_fract_x
   _atom_site_fract_y
   _atom_site_fract_z
   _atom_site_adp_type
   _atom_site_B_iso_or_equiv
   _atom_site_type_symbol
   A1         1.0     0.040990     -0.013980      0.012770     Biso  1.000000 Sn
   B1         1.0    -0.493230     -0.133170     -0.023470     Biso  1.000000 I
   B2         1.0    -0.078700      0.023140     -0.452560     Biso  1.000000 I
   B3         1.0     0.077990      0.452700      0.133520     Biso  1.000000 I
   C1         1.0    -0.414590     -0.468270      0.469240     Biso  1.000000 N
   D1         1.0    -0.447240     -0.374890     -0.386150     Biso  1.000000 H
   D2         1.0    -0.320250      0.386950     -0.499080     Biso  1.000000 H
   D3         1.0     0.441180      0.499320      0.374770     Biso  1.000000 H
   D4         1.0    -0.331210     -0.383480      0.386650     Biso  1.000000 H

# Number_of_atoms:                     9
# Number_of_atom_types:                4
# Atom_types:                          Sn I N H
# Atom_numbers:                        1 3 1 4
# Material_class:                      MC_ino
# Geometry_class:                      GC_cry
# Source:                              Huan_etal:PhysRevB(2016)
# Tool:                                VASP
# Pseudopotential:                     PAW, PBE
# Simulation_conditions:               ENCUT=500eV
# Band_gap_at_the_GGA_level_(eV):      0.4
# Band_gap_at_the_HSE06_level_(eV):    1.65
# File_description:                    Structure in CIF Format 
# Note:                                N/A
# Created_by:			       Huan Tran (huan.tran@uconn.edu)